   12
Universe
 C     -1.923954     0.780099    -0.000020
 C     -0.686987     1.416550     0.000064
 C      0.482625     0.663309    -0.000075
 C      0.414998    -0.726074     0.000003
 C     -0.822016    -1.362436     0.000020
 C     -1.991582    -0.609284    -0.000042
 H     -2.844297     1.372798    -0.000011
 H     -0.634098     2.510001     0.000139
 H      1.456125     1.163974    -0.000109
 H      1.335475    -1.318816    -0.000005
 H     -0.875262    -2.455846     0.000145
 H     -2.965082    -1.109949    -0.000108
