   27
funny
 C    -0.153911    -0.110135     0.085333
 C     0.463505     1.024565     0.949021
 C     1.226685    -0.726430    -0.274403
 C    -1.042493     0.167142    -1.159337
 C    -1.263388    -0.907832     0.826076
 C    -0.158038     0.760990     2.318191
 C    -1.454499    -0.086042     2.098367
 C     1.239593    -0.618510    -1.796894
 C    -0.243567    -0.495524    -2.278478
 C     1.885452     0.418700     0.600759
 C    -2.193221    -0.641709    -0.429072
 H     0.328458     1.993078     0.525194
 H     1.377658    -1.691177     0.152469
 H    -1.290813     1.196961    -1.274465
 H    -1.030772    -1.941665     0.937811
 H     0.516473     0.203008     2.960500
 H    -0.442903     1.694811     2.798223
 H    -2.300003     0.589643     2.012041
 H    -1.583029    -0.735934     2.961269
 H     1.666106    -1.514143    -2.243472
 H     1.785947     0.259251    -2.128708
 H    -0.619674    -1.489457    -2.501112
 H    -0.256667     0.118060    -3.176766
 H     2.440671     1.092082    -0.013697
 H     2.345248     0.007875     1.472097
 H    -3.001414     0.005697    -0.170518
 H    -2.399379    -1.553699    -0.943755
