   26
octane
 C    -4.481700     0.269329     0.000000
 C    -3.181543    -0.536668     0.000000
 C    -1.933074     0.349555     0.000000
 C    -0.623814    -0.443618     0.000000
 C     0.623814     0.443618     0.000000
 C     1.933074    -0.349555     0.000000
 C     3.181543     0.536668     0.000000
 C     4.481700    -0.269329     0.000000
 H    -3.154931    -1.200227    -0.884902
 H    -3.154931    -1.200227     0.884902
 H    -5.368488    -0.386250     0.000000
 H    -4.542187     0.918690     0.890583
 H    -4.542187     0.918690    -0.890583
 H    -1.957610     1.014343    -0.885671
 H    -1.957610     1.014343     0.885671
 H    -0.599271    -1.108001     0.885726
 H    -0.599271    -1.108001    -0.885726
 H     0.599271     1.108001    -0.885726
 H     0.599271     1.108001     0.885726
 H     1.957610    -1.014343     0.885671
 H     1.957610    -1.014343    -0.885671
 H     3.154931     1.200227     0.884902
 H     3.154931     1.200227    -0.884902
 H     5.368488     0.386250     0.000000
 H     4.542187    -0.918690     0.890583
 H     4.542187    -0.918690    -0.890583
