  832
thf
 O      0.757105    17.544863    12.419529
 C      1.495527    16.418356    12.854610
 C      1.495070    18.670696    12.857121
 C      2.970427    18.318064    12.615481
 C      2.970739    16.772122    12.613757
 H      1.144090    19.538254    12.294885
 H      1.304976    18.846833    13.927933
 H      1.144896    15.551911    12.290440
 H      1.305503    16.239755    13.925026
 H      3.620375    16.349895    13.385276
 H      3.308601    16.385065    11.648954
 H      3.619893    18.738832    13.387940
 H      3.308132    18.707407    11.651542
 O      6.334997    17.479568    12.389170
 C      7.073418    16.353061    12.824251
 C      7.072962    18.605400    12.826763
 C      8.548318    18.252769    12.585122
 C      8.548630    16.706827    12.583398
 H      6.721982    19.472959    12.264526
 H      6.882868    18.781538    13.897574
 H      6.722787    15.486616    12.260081
 H      6.883395    16.174459    13.894667
 H      9.198266    16.284600    13.354917
 H      8.886492    16.319770    11.618595
 H      9.197785    18.673537    13.357582
 H      8.886024    18.642112    11.621183
 O     10.937141    17.586635    12.366455
 C     11.675563    16.460128    12.801536
 C     11.675106    18.712467    12.804047
 C     13.150463    18.359835    12.562407
 C     13.150775    16.813893    12.560683
 H     11.324126    19.580026    12.241811
 H     11.485012    18.888605    13.874859
 H     11.324932    15.593683    12.237366
 H     11.485539    16.281526    13.871952
 H     13.800410    16.391667    13.332202
 H     13.488636    16.426837    11.595880
 H     13.799929    18.780603    13.334867
 H     13.488168    18.749179    11.598468
 O     16.404462    17.407390    12.335028
 C     17.142883    16.280883    12.770109
 C     17.142427    18.533222    12.772620
 C     18.617783    18.180591    12.530980
 C     18.618095    16.634649    12.529256
 H     16.791447    19.400781    12.210384
 H     16.952333    18.709360    13.843432
 H     16.792252    15.414438    12.205939
 H     16.952860    16.102282    13.840525
 H     19.267731    16.212422    13.300775
 H     18.955957    16.247592    11.564453
 H     19.267250    18.601359    13.303440
 H     18.955489    18.569934    11.567041
 O     18.757514    12.706922    11.112361
 C     18.019303    13.833090    10.676046
 C     18.019312    11.580749    10.676046
 C     16.544033    11.933943    10.917337
 C     16.544028    13.479886    10.917337
 H     18.370137    10.713748    11.239239
 H     18.209339    11.403380     9.605426
 H     18.370123    14.700094    11.239239
 H     18.209330    14.010460     9.605426
 H     15.894453    13.901381    10.145367
 H     16.206272    13.868085    11.881718
 H     15.894460    11.512443    10.145366
 H     16.206279    11.545742    11.881719
 O     13.179636    12.773359    11.142812
 C     12.441425    13.899527    10.706497
 C     12.441434    11.647186    10.706497
 C     10.966155    12.000380    10.947788
 C     10.966150    13.546323    10.947788
 H     12.792259    10.780185    11.269690
 H     12.631461    11.469817     9.635877
 H     12.792245    14.766531    11.269690
 H     12.631452    14.076897     9.635877
 H     10.316575    13.967818    10.175818
 H     10.628394    13.934522    11.912169
 H     10.316582    11.578880    10.175817
 H     10.628401    11.612179    11.912170
 O      8.577471    12.667232    11.165783
 C      7.839260    13.793400    10.729468
 C      7.839269    11.541059    10.729468
 C      6.363990    11.894253    10.970759
 C      6.363985    13.440196    10.970759
 H      8.190094    10.674058    11.292661
 H      8.029296    11.363690     9.658848
 H      8.190080    14.660404    11.292661
 H      8.029287    13.970770     9.658848
 H      5.714410    13.861691    10.198789
 H      6.026229    13.828395    11.935140
 H      5.714417    11.472753    10.198788
 H      6.026236    11.506052    11.935141
 O      3.110187    12.847598    11.197172
 C      2.371976    13.973766    10.760857
 C      2.371985    11.721425    10.760857
 C      0.896706    12.074619    11.002148
 C      0.896701    13.620562    11.002148
 H      2.722810    10.854424    11.324050
 H      2.562012    11.544056     9.690237
 H      2.722796    14.840770    11.324050
 H      2.562003    14.151136     9.690237
 H      0.247126    14.042057    10.230178
 H      0.558945    14.008761    11.966529
 H      0.247133    11.653119    10.230177
 H      0.558952    11.686418    11.966530
 O      0.713461     7.845663    12.358182
 C      1.451672     6.719495    12.794497
 C      1.451663     8.971836    12.794497
 C      2.926942     8.618642    12.553206
 C      2.926947     7.072699    12.553206
 H      1.100838     9.838837    12.231304
 H      1.261636     9.149205    13.865117
 H      1.100852     5.852491    12.231304
 H      1.261645     6.542125    13.865117
 H      3.576522     6.651204    13.325176
 H      3.264703     6.684500    11.588825
 H      3.576515     9.040142    13.325177
 H      3.264696     9.006843    11.588824
 O      6.291339     7.779226    12.327731
 C      7.029550     6.653058    12.764046
 C      7.029541     8.905399    12.764046
 C      8.504820     8.552205    12.522755
 C      8.504825     7.006262    12.522755
 H      6.678716     9.772400    12.200853
 H      6.839514     9.082768    13.834666
 H      6.678730     5.786054    12.200853
 H      6.839523     6.475688    13.834666
 H      9.154400     6.584767    13.294725
 H      8.842581     6.618063    11.558374
 H      9.154393     8.973705    13.294726
 H      8.842574     8.940406    11.558373
 O     10.893504     7.885353    12.304760
 C     11.631715     6.759185    12.741075
 C     11.631706     9.011526    12.741075
 C     13.106985     8.658332    12.499784
 C     13.106990     7.112389    12.499784
 H     11.280881     9.878527    12.177882
 H     11.441679     9.188895    13.811695
 H     11.280895     5.892181    12.177882
 H     11.441688     6.581815    13.811695
 H     13.756565     6.690894    13.271754
 H     13.444746     6.724190    11.535403
 H     13.756558     9.079832    13.271755
 H     13.444739     9.046533    11.535402
 O     16.360788     7.704987    12.273371
 C     17.098999     6.578819    12.709686
 C     17.098990     8.831160    12.709686
 C     18.574269     8.477966    12.468395
 C     18.574274     6.932023    12.468395
 H     16.748165     9.698161    12.146493
 H     16.908963     9.008529    13.780306
 H     16.748179     5.711815    12.146493
 H     16.908972     6.401449    13.780306
 H     19.223849     6.510528    13.240365
 H     18.912030     6.543824    11.504014
 H     19.223842     8.899466    13.240366
 H     18.912023     8.866167    11.504013
 O     19.339538     2.772903    11.238139
 C     18.601327     3.899071    10.801824
 C     18.601336     1.646730    10.801824
 C     17.126057     1.999924    11.043115
 C     17.126052     3.545867    11.043115
 H     18.952161     0.779729    11.365017
 H     18.791363     1.469361     9.731204
 H     18.952147     4.766075    11.365017
 H     18.791354     4.076441     9.731204
 H     16.476477     3.967362    10.271145
 H     16.788296     3.934066    12.007496
 H     16.476484     1.578424    10.271144
 H     16.788303     1.611723    12.007497
 O     13.761660     2.839340    11.268590
 C     13.023449     3.965508    10.832275
 C     13.023458     1.713167    10.832275
 C     11.548179     2.066361    11.073566
 C     11.548174     3.612304    11.073566
 H     13.374283     0.846166    11.395468
 H     13.213485     1.535798     9.761655
 H     13.374269     4.832512    11.395468
 H     13.213476     4.142878     9.761655
 H     10.898599     4.033799    10.301596
 H     11.210418     4.000503    12.037947
 H     10.898606     1.644861    10.301595
 H     11.210425     1.678160    12.037948
 O      9.159496     2.733213    11.291561
 C      8.421285     3.859381    10.855246
 C      8.421294     1.607040    10.855246
 C      6.946015     1.960234    11.096537
 C      6.946010     3.506177    11.096537
 H      8.772119     0.740039    11.418439
 H      8.611321     1.429671     9.784626
 H      8.772105     4.726385    11.418439
 H      8.611312     4.036751     9.784626
 H      6.296435     3.927672    10.324567
 H      6.608254     3.894376    12.060918
 H      6.296442     1.538734    10.324566
 H      6.608261     1.572033    12.060919
 O      3.692212     2.913579    11.322951
 C      2.954001     4.039747    10.886636
 C      2.954010     1.787406    10.886636
 C      1.478731     2.140600    11.127927
 C      1.478726     3.686543    11.127927
 H      3.304835     0.920405    11.449829
 H      3.144037     1.610037     9.816016
 H      3.304821     4.906751    11.449829
 H      3.144028     4.217117     9.816016
 H      0.829151     4.108038    10.355957
 H      1.140970     4.074742    12.092308
 H      0.829158     1.719100    10.355956
 H      1.140977     1.752399    12.092309
 O      0.709075    17.687387     7.406675
 C      1.447497    16.560880     7.841756
 C      1.447041    18.813220     7.844267
 C      2.922397    18.460588     7.602626
 C      2.922709    16.914646     7.600903
 H      1.096060    19.680778     7.282031
 H      1.256947    18.989357     8.915079
 H      1.096866    15.694435     7.277586
 H      1.257474    16.382279     8.912172
 H      3.572345    16.492420     8.372422
 H      3.260571    16.527590     6.636100
 H      3.571863    18.881356     8.375086
 H      3.260103    18.849931     6.638688
 O      6.286967    17.622092     7.376316
 C      7.025389    16.495585     7.811397
 C      7.024932    18.747925     7.813909
 C      8.500289    18.395293     7.572268
 C      8.500601    16.849351     7.570544
 H      6.673952    19.615483     7.251672
 H      6.834838    18.924062     8.884720
 H      6.674758    15.629140     7.247227
 H      6.835365    16.316984     8.881813
 H      9.150237    16.427124     8.342063
 H      8.838462    16.462294     6.605741
 H      9.149755    18.816061     8.344728
 H      8.837994    18.784636     6.608329
 O     10.889111    17.729159     7.353601
 C     11.627533    16.602652     7.788682
 C     11.627077    18.854991     7.791193
 C     13.102433    18.502360     7.549553
 C     13.102745    16.956418     7.547829
 H     11.276096    19.722550     7.228957
 H     11.436983    19.031129     8.862005
 H     11.276902    15.736207     7.224512
 H     11.437510    16.424050     8.859098
 H     13.752381    16.534191     8.319348
 H     13.440607    16.569361     6.583026
 H     13.751899    18.923128     8.322013
 H     13.440138    18.891703     6.585614
 O     16.356432    17.549914     7.322174
 C     17.094854    16.423407     7.757255
 C     17.094397    18.675747     7.759766
 C     18.569754    18.323115     7.518126
 C     18.570066    16.777173     7.516402
 H     16.743417    19.543305     7.197530
 H     16.904303    18.851884     8.830578
 H     16.744223    15.556962     7.193085
 H     16.904830    16.244806     8.827671
 H     19.219702    16.354946     8.287921
 H     18.907927    16.390117     6.551599
 H     19.219220    18.743883     8.290585
 H     18.907459    18.712458     6.554187
 O     18.709484    12.849446     6.099507
 C     17.971273    13.975614     5.663192
 C     17.971282    11.723273     5.663192
 C     16.496003    12.076467     5.904483
 C     16.495998    13.622410     5.904483
 H     18.322107    10.856272     6.226385
 H     18.161309    11.545904     4.592572
 H     18.322093    14.842618     6.226385
 H     18.161300    14.152984     4.592572
 H     15.846423    14.043905     5.132513
 H     16.158242    14.010609     6.868864
 H     15.846430    11.654967     5.132512
 H     16.158249    11.688266     6.868865
 O     13.131606    12.915883     6.129958
 C     12.393395    14.042051     5.693643
 C     12.393404    11.789710     5.693643
 C     10.918125    12.142904     5.934934
 C     10.918120    13.688847     5.934934
 H     12.744229    10.922709     6.256836
 H     12.583431    11.612341     4.623023
 H     12.744215    14.909055     6.256836
 H     12.583422    14.219421     4.623023
 H     10.268545    14.110342     5.162964
 H     10.580364    14.077046     6.899315
 H     10.268552    11.721404     5.162963
 H     10.580371    11.754703     6.899316
 O      8.529442    12.809756     6.152929
 C      7.791231    13.935924     5.716614
 C      7.791240    11.683583     5.716614
 C      6.315961    12.036777     5.957905
 C      6.315956    13.582720     5.957905
 H      8.142065    10.816582     6.279807
 H      7.981267    11.506214     4.645994
 H      8.142051    14.802928     6.279807
 H      7.981258    14.113294     4.645994
 H      5.666381    14.004215     5.185935
 H      5.978200    13.970919     6.922286
 H      5.666388    11.615277     5.185934
 H      5.978207    11.648576     6.922287
 O      3.062157    12.990122     6.184318
 C      2.323946    14.116290     5.748003
 C      2.323955    11.863949     5.748003
 C      0.848676    12.217143     5.989294
 C      0.848671    13.763086     5.989294
 H      2.674780    10.996948     6.311196
 H      2.513982    11.686580     4.677383
 H      2.674766    14.983294     6.311196
 H      2.513973    14.293660     4.677383
 H      0.199096    14.184581     5.217324
 H      0.510915    14.151285     6.953675
 H      0.199103    11.795643     5.217323
 H      0.510922    11.828942     6.953676
 O      0.665432     7.988187     7.345328
 C      1.403643     6.862019     7.781643
 C      1.403634     9.114360     7.781643
 C      2.878913     8.761166     7.540352
 C      2.878918     7.215223     7.540352
 H      1.052809     9.981361     7.218450
 H      1.213607     9.291729     8.852263
 H      1.052823     5.995015     7.218450
 H      1.213616     6.684649     8.852263
 H      3.528493     6.793728     8.312322
 H      3.216674     6.827024     6.575971
 H      3.528486     9.182666     8.312323
 H      3.216667     9.149367     6.575970
 O      6.243309     7.921750     7.314877
 C      6.981520     6.795582     7.751192
 C      6.981511     9.047923     7.751192
 C      8.456790     8.694729     7.509901
 C      8.456795     7.148786     7.509901
 H      6.630686     9.914924     7.187999
 H      6.791484     9.225292     8.821812
 H      6.630700     5.928578     7.187999
 H      6.791493     6.618212     8.821812
 H      9.106370     6.727291     8.281871
 H      8.794551     6.760587     6.545520
 H      9.106363     9.116229     8.281872
 H      8.794544     9.082930     6.545519
 O     10.845474     8.027877     7.291906
 C     11.583685     6.901709     7.728221
 C     11.583676     9.154050     7.728221
 C     13.058955     8.800856     7.486930
 C     13.058960     7.254913     7.486930
 H     11.232851    10.021051     7.165028
 H     11.393649     9.331419     8.798841
 H     11.232865     6.034705     7.165028
 H     11.393658     6.724339     8.798841
 H     13.708535     6.833418     8.258900
 H     13.396716     6.866714     6.522549
 H     13.708528     9.222356     8.258901
 H     13.396709     9.189057     6.522548
 O     16.312758     7.847511     7.260517
 C     17.050969     6.721343     7.696832
 C     17.050960     8.973684     7.696832
 C     18.526239     8.620490     7.455541
 C     18.526244     7.074547     7.455541
 H     16.700135     9.840685     7.133639
 H     16.860933     9.151053     8.767452
 H     16.700149     5.854339     7.133639
 H     16.860942     6.543973     8.767452
 H     19.175819     6.653052     8.227511
 H     18.864000     6.686348     6.491160
 H     19.175812     9.041990     8.227512
 H     18.863993     9.008691     6.491159
 O     19.291508     2.915427     6.225285
 C     18.553297     4.041595     5.788970
 C     18.553306     1.789254     5.788970
 C     17.078027     2.142448     6.030261
 C     17.078022     3.688391     6.030261
 H     18.904131     0.922253     6.352163
 H     18.743333     1.611885     4.718350
 H     18.904117     4.908599     6.352163
 H     18.743324     4.218965     4.718350
 H     16.428447     4.109886     5.258291
 H     16.740266     4.076590     6.994642
 H     16.428454     1.720948     5.258290
 H     16.740273     1.754247     6.994643
 O     13.713631     2.981864     6.255736
 C     12.975420     4.108032     5.819421
 C     12.975429     1.855691     5.819421
 C     11.500150     2.208885     6.060712
 C     11.500145     3.754828     6.060712
 H     13.326254     0.988690     6.382614
 H     13.165456     1.678322     4.748801
 H     13.326240     4.975036     6.382614
 H     13.165447     4.285402     4.748801
 H     10.850570     4.176323     5.288742
 H     11.162389     4.143027     7.025093
 H     10.850577     1.787385     5.288741
 H     11.162396     1.820684     7.025094
 O      9.111466     2.875737     6.278707
 C      8.373255     4.001905     5.842392
 C      8.373264     1.749564     5.842392
 C      6.897985     2.102758     6.083683
 C      6.897980     3.648701     6.083683
 H      8.724089     0.882563     6.405585
 H      8.563291     1.572195     4.771772
 H      8.724075     4.868909     6.405585
 H      8.563282     4.179275     4.771772
 H      6.248405     4.070196     5.311713
 H      6.560224     4.036900     7.048064
 H      6.248412     1.681258     5.311712
 H      6.560231     1.714557     7.048065
 O      3.644182     3.056103     6.310097
 C      2.905971     4.182271     5.873782
 C      2.905980     1.929930     5.873782
 C      1.430701     2.283124     6.115073
 C      1.430696     3.829067     6.115073
 H      3.256805     1.062929     6.436975
 H      3.096007     1.752561     4.803162
 H      3.256791     5.049275     6.436975
 H      3.095998     4.359641     4.803162
 H      0.781121     4.250562     5.343103
 H      1.092940     4.217266     7.079454
 H      0.781128     1.861624     5.343102
 H      1.092947     1.894923     7.079455
 O      0.670657    17.697267     3.364260
 C      1.409078    16.570760     3.799341
 C      1.408622    18.823100     3.801853
 C      2.883978    18.470468     3.560212
 C      2.884290    16.924526     3.558488
 H      1.057641    19.690658     3.239616
 H      1.218528    18.999237     4.872664
 H      1.058447    15.704315     3.235171
 H      1.219055    16.392159     4.869757
 H      3.533926    16.502299     4.330007
 H      3.222152    16.537470     2.593685
 H      3.533445    18.891236     4.332672
 H      3.221684    18.859811     2.596273
 O      6.248548    17.631972     3.333902
 C      6.986970    16.505465     3.768983
 C      6.986513    18.757804     3.771494
 C      8.461870    18.405173     3.529853
 C      8.462182    16.859231     3.528130
 H      6.635533    19.625363     3.209258
 H      6.796420    18.933942     4.842305
 H      6.636339    15.639020     3.204813
 H      6.796946    16.326864     4.839399
 H      9.111818    16.437004     4.299649
 H      8.800044    16.472174     2.563326
 H      9.111336    18.825941     4.302313
 H      8.799575    18.794516     2.565915
 O     10.850692    17.739039     3.311186
 C     11.589114    16.612532     3.746268
 C     11.588658    18.864871     3.748779
 C     13.064014    18.512240     3.507138
 C     13.064326    16.966298     3.505415
 H     11.237677    19.732430     3.186542
 H     11.398564    19.041009     4.819590
 H     11.238483    15.746087     3.182098
 H     11.399091    16.433930     4.816683
 H     13.713962    16.544071     4.276933
 H     13.402188    16.579241     2.540611
 H     13.713480    18.933008     4.279598
 H     13.401719    18.901583     2.543200
 O     16.318013    17.559794     3.279759
 C     17.056435    16.433287     3.714840
 C     17.055978    18.685627     3.717352
 C     18.531335    18.332995     3.475711
 C     18.531647    16.787053     3.473987
 H     16.704998    19.553185     3.155115
 H     16.865885    18.861764     4.788163
 H     16.705804    15.566842     3.150670
 H     16.866411    16.254686     4.785256
 H     19.181283    16.364826     4.245506
 H     18.869509    16.399996     2.509184
 H     19.180801    18.753763     4.248171
 H     18.869040    18.722338     2.511773
 O     18.671065    12.859326     2.057092
 C     17.932854    13.985494     1.620777
 C     17.932863    11.733153     1.620777
 C     16.457584    12.086347     1.862068
 C     16.457579    13.632290     1.862068
 H     18.283688    10.866152     2.183970
 H     18.122890    11.555784     0.550157
 H     18.283674    14.852498     2.183970
 H     18.122881    14.162864     0.550157
 H     15.808004    14.053785     1.090098
 H     16.119823    14.020489     2.826449
 H     15.808011    11.664847     1.090097
 H     16.119830    11.698146     2.826450
 O     13.093187    12.925763     2.087544
 C     12.354976    14.051931     1.651229
 C     12.354985    11.799590     1.651229
 C     10.879706    12.152784     1.892520
 C     10.879701    13.698727     1.892520
 H     12.705810    10.932589     2.214422
 H     12.545012    11.622221     0.580609
 H     12.705796    14.918935     2.214422
 H     12.545003    14.229301     0.580609
 H     10.230126    14.120222     1.120550
 H     10.541945    14.086926     2.856901
 H     10.230133    11.731284     1.120549
 H     10.541952    11.764583     2.856902
 O      8.491023    12.819636     2.110514
 C      7.752812    13.945804     1.674199
 C      7.752821    11.693463     1.674199
 C      6.277542    12.046657     1.915490
 C      6.277537    13.592600     1.915490
 H      8.103646    10.826462     2.237392
 H      7.942848    11.516094     0.603579
 H      8.103632    14.812808     2.237392
 H      7.942839    14.123174     0.603579
 H      5.627962    14.014095     1.143520
 H      5.939781    13.980799     2.879871
 H      5.627969    11.625157     1.143519
 H      5.939788    11.658456     2.879872
 O      3.023739    13.000002     2.141904
 C      2.285528    14.126170     1.705589
 C      2.285537    11.873829     1.705589
 C      0.810258    12.227023     1.946880
 C      0.810253    13.772966     1.946880
 H      2.636362    11.006828     2.268782
 H      2.475564    11.696460     0.634969
 H      2.636348    14.993174     2.268782
 H      2.475555    14.303540     0.634969
 H      0.160678    14.194461     1.174910
 H      0.472497    14.161165     2.911261
 H      0.160685    11.805523     1.174909
 H      0.472504    11.838822     2.911262
 O      0.627013     7.998067     3.302914
 C      1.365224     6.871899     3.739229
 C      1.365215     9.124240     3.739229
 C      2.840494     8.771046     3.497938
 C      2.840499     7.225103     3.497938
 H      1.014390     9.991241     3.176036
 H      1.175188     9.301609     4.809849
 H      1.014404     6.004895     3.176036
 H      1.175197     6.694529     4.809849
 H      3.490074     6.803608     4.269908
 H      3.178255     6.836904     2.533557
 H      3.490067     9.192546     4.269909
 H      3.178248     9.159247     2.533556
 O      6.204890     7.931630     3.272463
 C      6.943101     6.805462     3.708778
 C      6.943092     9.057803     3.708778
 C      8.418371     8.704609     3.467487
 C      8.418376     7.158666     3.467487
 H      6.592267     9.924804     3.145585
 H      6.753065     9.235172     4.779398
 H      6.592281     5.938458     3.145585
 H      6.753074     6.628092     4.779398
 H      9.067951     6.737171     4.239457
 H      8.756132     6.770467     2.503106
 H      9.067944     9.126109     4.239458
 H      8.756125     9.092810     2.503105
 O     10.807055     8.037757     3.249492
 C     11.545266     6.911589     3.685807
 C     11.545257     9.163930     3.685807
 C     13.020536     8.810736     3.444516
 C     13.020541     7.264793     3.444516
 H     11.194432    10.030931     3.122614
 H     11.355230     9.341299     4.756427
 H     11.194446     6.044585     3.122614
 H     11.355239     6.734219     4.756427
 H     13.670116     6.843298     4.216486
 H     13.358297     6.876594     2.480135
 H     13.670109     9.232236     4.216487
 H     13.358290     9.198937     2.480134
 O     16.274339     7.857391     3.218102
 C     17.012550     6.731223     3.654417
 C     17.012541     8.983564     3.654417
 C     18.487820     8.630370     3.413126
 C     18.487825     7.084427     3.413126
 H     16.661716     9.850565     3.091224
 H     16.822514     9.160933     4.725037
 H     16.661730     5.864219     3.091224
 H     16.822523     6.553853     4.725037
 H     19.137400     6.662932     4.185096
 H     18.825581     6.696228     2.448745
 H     19.137393     9.051870     4.185097
 H     18.825574     9.018571     2.448744
 O     19.253090     2.925307     2.182871
 C     18.514879     4.051475     1.746556
 C     18.514888     1.799134     1.746556
 C     17.039609     2.152328     1.987847
 C     17.039604     3.698271     1.987847
 H     18.865713     0.932133     2.309749
 H     18.704915     1.621765     0.675936
 H     18.865699     4.918479     2.309749
 H     18.704906     4.228845     0.675936
 H     16.390029     4.119766     1.215877
 H     16.701848     4.086470     2.952228
 H     16.390036     1.730828     1.215876
 H     16.701855     1.764127     2.952229
 O     13.675212     2.991744     2.213322
 C     12.937001     4.117912     1.777007
 C     12.937010     1.865571     1.777007
 C     11.461731     2.218765     2.018298
 C     11.461726     3.764708     2.018298
 H     13.287835     0.998570     2.340200
 H     13.127037     1.688202     0.706387
 H     13.287821     4.984916     2.340200
 H     13.127028     4.295282     0.706387
 H     10.812151     4.186203     1.246328
 H     11.123970     4.152907     2.982679
 H     10.812158     1.797265     1.246327
 H     11.123977     1.830564     2.982680
 O      9.073047     2.885617     2.236293
 C      8.334836     4.011785     1.799978
 C      8.334845     1.759444     1.799978
 C      6.859566     2.112638     2.041269
 C      6.859561     3.658581     2.041269
 H      8.685670     0.892443     2.363171
 H      8.524872     1.582075     0.729358
 H      8.685656     4.878789     2.363171
 H      8.524863     4.189155     0.729358
 H      6.209986     4.080076     1.269299
 H      6.521805     4.046780     3.005650
 H      6.209993     1.691138     1.269298
 H      6.521812     1.724437     3.005651
 O      3.605763     3.065983     2.267682
 C      2.867552     4.192151     1.831367
 C      2.867561     1.939810     1.831367
 C      1.392282     2.293004     2.072658
 C      1.392277     3.838947     2.072658
 H      3.218386     1.072809     2.394560
 H      3.057588     1.762441     0.760747
 H      3.218372     5.059155     2.394560
 H      3.057579     4.369521     0.760747
 H      0.742702     4.260442     1.300688
 H      1.054521     4.227146     3.037039
 H      0.742709     1.871504     1.300687
 H      1.054528     1.904803     3.037040
 O      0.807984    17.656413    17.812033
 C      1.546406    16.529905    18.247114
 C      1.545949    18.782245    18.249625
 C      3.021306    18.429613    18.007985
 C      3.021618    16.883671    18.006261
 H      1.194969    19.649804    17.687389
 H      1.355855    18.958382    19.320437
 H      1.195775    15.663460    17.682944
 H      1.356382    16.351304    19.317530
 H      3.671254    16.461445    18.777780
 H      3.359479    16.496615    17.041458
 H      3.670772    18.850381    18.780444
 H      3.359011    18.818956    17.044046
 O      6.385876    17.591117    17.781674
 C      7.124297    16.464610    18.216755
 C      7.123841    18.716950    18.219267
 C      8.599197    18.364318    17.977626
 C      8.599509    16.818376    17.975902
 H      6.772860    19.584509    17.657030
 H      6.933747    18.893087    19.290078
 H      6.773666    15.598165    17.652585
 H      6.934274    16.286009    19.287171
 H      9.249145    16.396150    18.747421
 H      8.937371    16.431320    17.011099
 H      9.248664    18.785086    18.750086
 H      8.936903    18.753661    17.013688
 O     10.988020    17.698184    17.758959
 C     11.726442    16.571677    18.194040
 C     11.725985    18.824017    18.196552
 C     13.201341    18.471385    17.954911
 C     13.201653    16.925443    17.953187
 H     11.375005    19.691575    17.634315
 H     11.535891    19.000154    19.267363
 H     11.375810    15.705232    17.629870
 H     11.536418    16.393076    19.264456
 H     13.851289    16.503216    18.724706
 H     13.539515    16.538386    16.988384
 H     13.850808    18.892153    18.727371
 H     13.539047    18.860728    16.990972
 O     16.455341    17.518939    17.727532
 C     17.193762    16.392432    18.162613
 C     17.193306    18.644772    18.165124
 C     18.668662    18.292140    17.923484
 C     18.668974    16.746198    17.921760
 H     16.842325    19.512331    17.602888
 H     17.003212    18.820909    19.235936
 H     16.843131    15.525987    17.598443
 H     17.003739    16.213831    19.233029
 H     19.318610    16.323972    18.693279
 H     19.006836    16.359142    16.956957
 H     19.318129    18.712908    18.695944
 H     19.006368    18.681483    16.959545
 O     18.808392    12.818472    16.504865
 C     18.070181    13.944640    16.068550
 C     18.070190    11.692299    16.068550
 C     16.594911    12.045493    16.309841
 C     16.594906    13.591436    16.309841
 H     18.421015    10.825298    16.631743
 H     18.260217    11.514930    14.997930
 H     18.421001    14.811644    16.631743
 H     18.260208    14.122010    14.997930
 H     15.945331    14.012931    15.537871
 H     16.257150    13.979635    17.274222
 H     15.945338    11.623993    15.537870
 H     16.257157    11.657292    17.274223
 O     13.230515    12.884909    16.535316
 C     12.492304    14.011077    16.099001
 C     12.492313    11.758736    16.099001
 C     11.017034    12.111930    16.340292
 C     11.017029    13.657873    16.340292
 H     12.843138    10.891735    16.662194
 H     12.682340    11.581367    15.028381
 H     12.843124    14.878081    16.662194
 H     12.682331    14.188447    15.028381
 H     10.367454    14.079368    15.568322
 H     10.679273    14.046072    17.304673
 H     10.367461    11.690430    15.568321
 H     10.679280    11.723729    17.304674
 O      8.628350    12.778781    16.558287
 C      7.890139    13.904949    16.121972
 C      7.890148    11.652608    16.121972
 C      6.414869    12.005802    16.363263
 C      6.414864    13.551745    16.363263
 H      8.240973    10.785607    16.685165
 H      8.080175    11.475239    15.051352
 H      8.240959    14.771953    16.685165
 H      8.080166    14.082319    15.051352
 H      5.765289    13.973240    15.591293
 H      6.077108    13.939944    17.327644
 H      5.765296    11.584302    15.591292
 H      6.077115    11.617601    17.327645
 O      3.161066    12.959147    16.589676
 C      2.422855    14.085315    16.153361
 C      2.422864    11.832974    16.153361
 C      0.947585    12.186168    16.394652
 C      0.947580    13.732111    16.394652
 H      2.773689    10.965973    16.716554
 H      2.612891    11.655605    15.082741
 H      2.773675    14.952319    16.716554
 H      2.612882    14.262685    15.082741
 H      0.298005    14.153606    15.622682
 H      0.609824    14.120310    17.359033
 H      0.298012    11.764668    15.622681
 H      0.609831    11.797967    17.359034
 O      0.764340     7.957212    17.750686
 C      1.502551     6.831044    18.187001
 C      1.502542     9.083385    18.187001
 C      2.977821     8.730191    17.945710
 C      2.977826     7.184248    17.945710
 H      1.151717     9.950386    17.623808
 H      1.312515     9.260754    19.257621
 H      1.151731     5.964040    17.623808
 H      1.312524     6.653674    19.257621
 H      3.627401     6.762753    18.717680
 H      3.315582     6.796049    16.981329
 H      3.627394     9.151691    18.717681
 H      3.315575     9.118392    16.981328
 O      6.342218     7.890775    17.720235
 C      7.080429     6.764607    18.156550
 C      7.080420     9.016948    18.156550
 C      8.555699     8.663754    17.915259
 C      8.555704     7.117811    17.915259
 H      6.729595     9.883949    17.593357
 H      6.890393     9.194317    19.227170
 H      6.729609     5.897603    17.593357
 H      6.890402     6.587237    19.227170
 H      9.205279     6.696316    18.687229
 H      8.893460     6.729612    16.950878
 H      9.205272     9.085254    18.687230
 H      8.893453     9.051955    16.950877
 O     10.944382     7.996902    17.697264
 C     11.682593     6.870734    18.133579
 C     11.682584     9.123075    18.133579
 C     13.157863     8.769881    17.892288
 C     13.157868     7.223938    17.892288
 H     11.331759     9.990076    17.570386
 H     11.492557     9.300444    19.204199
 H     11.331773     6.003730    17.570386
 H     11.492566     6.693364    19.204199
 H     13.807443     6.802443    18.664258
 H     13.495624     6.835739    16.927907
 H     13.807436     9.191381    18.664259
 H     13.495617     9.158082    16.927906
 O     16.411667     7.816536    17.665875
 C     17.149878     6.690368    18.102190
 C     17.149869     8.942709    18.102190
 C     18.625148     8.589515    17.860899
 C     18.625153     7.043572    17.860899
 H     16.799044     9.809710    17.538997
 H     16.959842     9.120078    19.172810
 H     16.799058     5.823364    17.538997
 H     16.959851     6.512998    19.172810
 H     19.274728     6.622077    18.632869
 H     18.962909     6.655373    16.896518
 H     19.274721     9.011015    18.632870
 H     18.962902     8.977716    16.896517
 O     19.390417     2.884452    16.630643
 C     18.652206     4.010620    16.194328
 C     18.652215     1.758279    16.194328
 C     17.176936     2.111473    16.435619
 C     17.176931     3.657416    16.435619
 H     19.003040     0.891278    16.757521
 H     18.842242     1.580910    15.123708
 H     19.003026     4.877624    16.757521
 H     18.842233     4.187990    15.123708
 H     16.527356     4.078911    15.663649
 H     16.839175     4.045615    17.400000
 H     16.527363     1.689973    15.663648
 H     16.839182     1.723272    17.400001
 O     13.812539     2.950889    16.661094
 C     13.074328     4.077057    16.224779
 C     13.074337     1.824716    16.224779
 C     11.599058     2.177910    16.466070
 C     11.599053     3.723853    16.466070
 H     13.425162     0.957715    16.787972
 H     13.264364     1.647347    15.154159
 H     13.425148     4.944061    16.787972
 H     13.264355     4.254427    15.154159
 H     10.949478     4.145348    15.694100
 H     11.261297     4.112052    17.430451
 H     10.949485     1.756410    15.694099
 H     11.261304     1.789709    17.430452
 O      9.210375     2.844762    16.684065
 C      8.472164     3.970930    16.247750
 C      8.472173     1.718589    16.247750
 C      6.996894     2.071783    16.489041
 C      6.996889     3.617726    16.489041
 H      8.822998     0.851588    16.810943
 H      8.662200     1.541220    15.177130
 H      8.822984     4.837934    16.810943
 H      8.662191     4.148300    15.177130
 H      6.347314     4.039221    15.717071
 H      6.659133     4.005925    17.453422
 H      6.347321     1.650283    15.717070
 H      6.659140     1.683582    17.453423
 O      3.743090     3.025128    16.715455
 C      3.004879     4.151296    16.279140
 C      3.004888     1.898955    16.279140
 C      1.529609     2.252149    16.520431
 C      1.529604     3.798092    16.520431
 H      3.355713     1.031954    16.842333
 H      3.194915     1.721586    15.208520
 H      3.355699     5.018300    16.842333
 H      3.194906     4.328666    15.208520
 H      0.880029     4.219587    15.748461
 H      1.191848     4.186291    17.484812
 H      0.880036     1.830649    15.748460
 H      1.191855     1.863948    17.484813
