   13
thf_single
 O     -1.160855     0.000007    -0.254433
 C     -0.422641     1.126173     0.181882
 C     -0.422656    -1.126168     0.181882
 C      1.052624    -0.772978    -0.059409
 C      1.052633     0.772965    -0.059409
 H     -0.773483    -1.993168    -0.381311
 H     -0.612683    -1.303536     1.252502
 H     -0.773458     1.993178    -0.381311
 H     -0.612667     1.303544     1.252502
 H      1.702209     1.194458     0.712561
 H      1.390390     1.161163    -1.023790
 H      1.702196    -1.194480     0.712562
 H      1.390377    -1.161180    -1.023791
