  108
tmp/MFI-35.xyz	0.0000
 O     -3.433375     2.663111     0.164854
Si     -1.346023    -2.399686    -5.204967
Si      3.666431    -2.342446    -4.844877
 O     -1.623264     0.797872    -6.993593
 O     -0.926141    -4.896543     5.022137
Si     -2.555442    -0.976576    -1.420071
 O     -0.912078     0.057694     3.727651
Si      1.074821    -3.341189    -3.537248
 O      0.564536     2.629556    -2.701416
 O      0.735301    -4.896543    -3.302005
 O     -1.088871     3.367757    -0.791883
 O      0.144655    -2.760890    -4.717399
Si     -0.972348    -1.318045     2.895762
 O     -2.408784    -3.295791    -4.392791
 O     -2.694062     3.255251     2.621094
Si      3.369100     3.444735     3.410929
 O      2.621752    -3.179337    -3.949906
Si     -2.677990     3.434867    -1.028440
 O     -3.578022    -4.896543    -2.668561
Si      2.605680    -3.358954     5.542561
Si     -1.560985     0.701153    -5.387641
 O     -3.154123     4.972457    -1.057352
 O      1.404297     2.779565    -0.211007
 O     -1.637328    -0.840384    -4.934242
 O      2.967300    -2.658254     4.138994
 O     -2.898978    -2.458900    -1.948379
 O     -0.178794     1.346585    -4.869846
 O      2.372637     1.579494    -4.296855
 O     -0.807610     4.972457     3.268994
 O      1.016561    -3.291843     5.779117
 O      0.839768     0.018220    -2.843349
 O     -1.476607    -2.703652     6.359993
Si      3.407272    -1.365414     3.288707
Si      0.550472    -1.020001    -1.648742
 O      4.807545     2.903915     2.932559
 O     -5.237455     2.903915     2.062558
 O     -0.972348    -0.860122    -1.149346
Si     -3.479581     1.441328    -3.282293
 O     -2.798530     1.504491    -4.741055
Si     -3.441410    -3.368822    -3.160072
 O     -0.859845     2.596003     4.390007
 O      0.900040     0.936036     5.421655
 O     -0.216966     2.836806     1.853601
Si     -0.504252    -3.360926     5.254750
 O     -0.636848    -2.553642     3.869583
 O     -3.359041    -0.692348    -0.055931
 O     -3.596105     0.849189     2.061244
 O      4.962236     1.417644    -4.706885
 O     -2.444945    -1.503580     2.274145
 O     -1.476607    -2.703652    -6.782007
Si     -1.147132     3.417102     3.033753
Si      1.273712     2.475600     1.366033
 O      3.523794    -0.773275    -4.509756
 O      3.081814    -4.896543     5.513648
 O      3.286732     0.768262     6.515068
 O      0.787536    -2.520089    -2.180993
 O      2.826670     2.534814     4.622621
Si     -0.622782     1.095915     4.922258
 O     -2.993403     0.105067    -2.530570
 O     -5.034548    -1.341730     1.864115
 O      3.286732     0.768262    -6.626932
Si      3.537857     0.748525    -5.036750
 O     -5.082764     1.417644    -3.439996
 O      5.165145    -2.828001    -4.508441
 O     -3.039610     2.734168    -2.432005
Si      2.483131     1.052490     5.150929
Si      0.431941     3.436841    -1.316249
 O      1.565018     0.916298     1.636758
 O     -1.623264     0.797872     6.148407
Si      1.488676    -0.625239     1.183358
 O      2.336473     3.371705     2.178208
 O     -4.879854    -2.828001    -3.638441
 O      3.505712     4.972457     3.902438
Si      0.900040     1.393959    -3.675238
 O      0.853831     4.972457    -1.548862
 O      0.106483    -1.270674     1.701154
 O      5.010452    -1.341730     3.131003
 O      2.921093    -0.029152     4.040430
 O      2.726221    -1.428577     1.829945
Si     -3.738741     2.418359     1.726123
 O      3.361063    -2.587198    -6.406146
 O      1.550955    -0.721957    -0.422593
 O      3.361063    -2.587198     6.735854
Si     -3.610168    -0.672611     1.534250
 H     -1.577495     1.718826    -7.260703
 H     -1.833006    -4.935409     4.709590
 H      1.289715    -5.242259    -2.598652
 H     -4.193550    -4.942291    -1.933283
 H     -2.703937     5.433507    -1.768945
 H      0.115757     5.064773     3.514903
 H     -1.227431    -1.787345     6.501032
 H      5.129664     3.447614     2.209904
 H     -5.419646     2.757962     2.993742
 H      5.657573     0.923439    -5.147189
 H     -2.364768    -2.489364    -7.076713
 H      2.866056    -5.314121     6.350713
 H      4.230060     0.838225     6.351251
 H     -5.182138    -1.328878     2.812615
 H      3.981531     0.272892    -7.066775
 H     -5.489239     1.380007    -2.571110
 H      5.789877    -2.330299    -5.040984
 H     -1.449999     1.417728     6.860698
 H     -5.497774    -2.870476    -2.904976
 H      2.647607     5.294763     4.187701
 H      0.774880     5.454678    -0.722527
 H      5.270671    -0.569578     2.623395
 H      3.985535    -2.086934    -6.936590
 H      3.146027    -3.004342     7.573321
